@<TRIPOS>MOLECULE
smi_total_5_2_replica-1.pdbqt
 13 12 0 0 0
SMALL
GASTEIGER

@<TRIPOS>ATOM
      1  C          5.8430   54.9720   12.5840 C.3     1  LIG1        0.0040
      2  C          5.5330   55.9030   13.7690 C.3     1  LIG1        0.0000
      3  C          7.3100   54.4750   12.5150 C.3     1  LIG1        0.0260
      4  C          7.8520   53.4830   13.4990 C.2     1  LIG1       -0.0300
      5  C          8.6310   52.4120   13.2290 C.2     1  LIG1       -0.0300
      6  C          9.1050   51.3940   14.2080 C.3     1  LIG1        0.0260
      7  C          8.1290   50.2350   14.2640 C.3     1  LIG1        0.0050
      8  C          5.5010   55.7630   11.3010 C.3     1  LIG1        0.0050
      9  C          4.0100   56.0550   11.1060 C.3     1  LIG1        0.0250
     10  C          3.2320   54.8570   10.6390 C.2     1  LIG1       -0.0340
     11  C          1.9060   54.6390   10.7380 C.2     1  LIG1       -0.0480
     12  C          1.3030   53.3690   10.2020 C.3     1  LIG1        0.0260
     13  C          0.9010   55.5700   11.3600 C.3     1  LIG1        0.0260
@<TRIPOS>BOND
     1    12    11    1
     2    10    11    2
     3    10     9    1
     4    11    13    1
     5     9     8    1
     6     8     1    1
     7     3     1    1
     8     3     4    1
     9     1     2    1
    10     5     4    2
    11     5     6    1
    12     6     7    1
