@<TRIPOS>MOLECULE
smi_total_3_1_replica-1.pdbqt
 12 11 0 0 0
SMALL
GASTEIGER

@<TRIPOS>ATOM
      1  C          3.9850   56.8780   13.7840 C.3     1  LIG1        0.0000
      2  C          5.3850   56.7330   13.1420 C.3     1  LIG1        0.0000
      3  C          5.9990   55.3210   13.0920 C.3     1  LIG1        0.0000
      4  C          6.1380   54.7440   11.6840 C.3     1  LIG1        0.0000
      5  C          6.3780   55.7930   10.6100 C.3     1  LIG1        0.0000
      6  C          7.8770   55.8890   10.2970 C.3     1  LIG1        0.0000
      7  C          8.2360   54.9400    9.1670 C.3     1  LIG1        0.0000
      8  C          2.8640   57.3390   12.8470 C.3     1  LIG1        0.0000
      9  C          2.9880   56.8600   11.3980 C.3     1  LIG1        0.0000
     10  C          1.8430   55.9020   10.9860 C.3     1  LIG1        0.0000
     11  C          2.3820   54.5420   10.5270 C.3     1  LIG1        0.0000
     12  C          1.3490   53.4350   10.3840 C.3     1  LIG1        0.0000
@<TRIPOS>BOND
     1     7     6    1
     2     6     5    1
     3    12    11    1
     4    11    10    1
     5     5     4    1
     6    10     9    1
     7     9     8    1
     8     4     3    1
     9     8     1    1
    10     3     2    1
    11     2     1    1
