@<TRIPOS>MOLECULE
smi_total_1_1_replica-1.pdbqt
 15 16 0 0 0
SMALL
GASTEIGER

@<TRIPOS>ATOM
      1  C          1.3600   53.4240   10.2920 C.3     1  LIG1        0.0310
      2  C          1.9800   54.7170   10.7290 C.ar    1  LIG1       -0.0220
      3  C          3.3750   54.8390   10.8200 C.ar    1  LIG1       -0.0040
      4  C          4.0260   56.0220   11.2540 C.ar    1  LIG1       -0.0040
      5  C          3.1950   57.1230   11.6210 C.ar    1  LIG1       -0.0040
      6  C          3.7780   58.3380   12.0630 C.ar    1  LIG1       -0.0220
      7  C          5.1680   58.4540   12.1410 C.ar    1  LIG1       -0.0040
      8  C          5.9840   57.3870   11.7870 C.ar    1  LIG1       -0.0040
      9  C          2.9480   59.5320   12.4630 C.3     1  LIG1        0.0310
     10  C          1.7910   56.9740   11.5370 C.ar    1  LIG1       -0.0010
     11  C          5.4470   56.1640   11.3420 C.ar    1  LIG1       -0.0220
     12  C          1.1910   55.7930   11.1050 C.ar    1  LIG1       -0.0040
     13  C          6.4740   55.0860   10.9890 C.3     1  LIG1        0.0220
     14  C          7.5640   55.5720   10.0310 C.3     1  LIG1        0.0050
     15  C          7.0390   54.3570   12.2110 C.3     1  LIG1        0.0050
@<TRIPOS>BOND
     1    14    13    1
     2     1     2    1
     3     2     3   ar
     4     2    12   ar
     5     3     4   ar
     6    13    11    1
     7    13    15    1
     8    12    10   ar
     9     4    11   ar
    10     4     5   ar
    11    11     8   ar
    12    10     5   ar
    13     5     6   ar
    14     8     7   ar
    15     6     7   ar
    16     6     9    1
