@<TRIPOS>MOLECULE
smi_total_5_1_replica-1.pdbqt
 14 15 0 0 0
SMALL
GASTEIGER

@<TRIPOS>ATOM
      1  C          5.2700   55.5890   11.2220 C.3     1  LIG1        0.0000
      2  C          6.2690   56.7640   11.0360 C.3     1  LIG1        0.0000
      3  C          7.7180   56.2360   10.9150 C.3     1  LIG1        0.0000
      4  C          8.7150   57.3900   10.7310 C.3     1  LIG1        0.0000
      5  C          8.5790   58.4790   11.7920 C.3     1  LIG1        0.0000
      6  C          7.1470   58.9880   11.8900 C.3     1  LIG1        0.0000
      7  C          8.1010   55.3340   12.1000 C.3     1  LIG1        0.0000
      8  C          7.1140   54.1840   12.2630 C.3     1  LIG1        0.0000
      9  C          6.1550   57.8500   12.1230 C.3     1  LIG1        0.0000
     10  C          5.6770   54.6800   12.3960 C.3     1  LIG1        0.0000
     11  C          3.7950   56.0210   11.3830 C.3     1  LIG1        0.0000
     12  C          2.8450   55.3250   10.4030 C.3     1  LIG1        0.0000
     13  C          2.1850   54.0990   11.0330 C.3     1  LIG1        0.0000
     14  C          1.3510   53.3380   10.0130 C.3     1  LIG1        0.0000
@<TRIPOS>BOND
     1    14    13    1
     2    12    13    1
     3    12    11    1
     4     4     3    1
     5     4     5    1
     6     3     2    1
     7     3     7    1
     8     2     1    1
     9     2     9    1
    10     1    11    1
    11     1    10    1
    12     5     6    1
    13     6     9    1
    14     7     8    1
    15     8    10    1
