@<TRIPOS>MOLECULE
smi_total_5_2_replica-1.pdbqt
 13 12 0 0 0
SMALL
GASTEIGER

@<TRIPOS>ATOM
      1  C          4.2090   56.0790   11.3920 C.3     1  LIG1        0.0040
      2  C          2.9660   55.5040   10.6910 C.3     1  LIG1        0.0000
      3  C          5.2660   55.0240   11.8080 C.3     1  LIG1        0.0260
      4  C          6.6850   55.1020   11.3330 C.2     1  LIG1       -0.0300
      5  C          7.1390   55.7290   10.2250 C.2     1  LIG1       -0.0300
      6  C          8.5430   55.7400    9.7280 C.3     1  LIG1        0.0260
      7  C          8.7000   54.7400    8.5990 C.3     1  LIG1        0.0050
      8  C          3.7020   56.8290   12.6450 C.3     1  LIG1        0.0050
      9  C          3.9990   58.3320   12.6580 C.3     1  LIG1        0.0250
     10  C          5.3130   58.6770   12.0160 C.2     1  LIG1       -0.0340
     11  C          6.5440   58.6120   12.5590 C.2     1  LIG1       -0.0480
     12  C          7.7530   58.9980   11.7510 C.3     1  LIG1        0.0260
     13  C          6.8690   58.1760   13.9630 C.3     1  LIG1        0.0260
@<TRIPOS>BOND
     1     7     6    1
     2     6     5    1
     3     5     4    2
     4     2     1    1
     5     4     3    1
     6     1     3    1
     7     1     8    1
     8    12    11    1
     9    10    11    2
    10    10     9    1
    11    11    13    1
    12     8     9    1
