@<TRIPOS>MOLECULE
smi_total_3_1_replica-1.pdbqt
 12 11 0 0 0
SMALL
GASTEIGER

@<TRIPOS>ATOM
      1  C          4.3520   57.7890   13.2480 C.2     1  LIG1        0.0000
      2  C          5.3160   58.2390   12.1260 C.3     1  LIG1        0.0000
      3  C          6.7890   57.8050   12.2400 C.3     1  LIG1        0.0000
      4  C          7.2240   56.7720   11.2020 C.3     1  LIG1        0.0000
      5  C          6.1220   55.8090   10.7930 C.3     1  LIG1        0.0000
      6  C          5.9260   54.7440   11.8810 C.3     1  LIG1        0.0000
      7  C          7.2670   54.1530   12.2800 C.3     1  LIG1        0.0000
      8  C          3.0730   57.0820   12.7890 C.2     1  LIG1        0.0000
      9  C          2.7640   57.2000   11.2940 C.3     1  LIG1        0.0000
     10  C          1.7720   56.1180   10.8020 C.3     1  LIG1        0.0000
     11  C          2.4660   54.7670   10.5970 C.3     1  LIG1        0.0000
     12  C          1.5450   53.5720   10.4010 C.3     1  LIG1        0.0000
@<TRIPOS>BOND
     1    12    11    1
     2    11    10    1
     3     5     4    1
     4     5     6    1
     5    10     9    1
     6     4     3    1
     7     9     8    1
     8     6     7    1
     9     2     3    1
    10     2     1    1
    11     8     1    2
