@<TRIPOS>MOLECULE
smi_total_1_1_replica-1.pdbqt
 15 16 0 0 0
SMALL
GASTEIGER

@<TRIPOS>ATOM
      1  C          8.1030   55.1190    9.4490 C.3     1  LIG1        0.0310
      2  C          7.4210   55.6020   10.6930 C.ar    1  LIG1       -0.0220
      3  C          6.0320   55.8040   10.7070 C.ar    1  LIG1       -0.0040
      4  C          5.3270   56.2860   11.8390 C.ar    1  LIG1       -0.0040
      5  C          6.0960   56.5830   13.0040 C.ar    1  LIG1       -0.0040
      6  C          5.4560   57.0680   14.1740 C.ar    1  LIG1       -0.0220
      7  C          4.0720   57.2570   14.1810 C.ar    1  LIG1       -0.0040
      8  C          3.3170   56.9710   13.0520 C.ar    1  LIG1       -0.0040
      9  C          6.2190   57.3980   15.4320 C.3     1  LIG1        0.0310
     10  C          7.4960   56.3880   12.9650 C.ar    1  LIG1       -0.0010
     11  C          3.9110   56.4880   11.8710 C.ar    1  LIG1       -0.0220
     12  C          8.1500   55.9110   11.8310 C.ar    1  LIG1       -0.0040
     13  C          2.9470   56.2210   10.7120 C.3     1  LIG1        0.0220
     14  C          2.4980   54.7600   10.6180 C.3     1  LIG1        0.0050
     15  C          1.7780   57.2080   10.6500 C.3     1  LIG1        0.0050
@<TRIPOS>BOND
     1     1     2    1
     2    14    13    1
     3    15    13    1
     4     2     3   ar
     5     2    12   ar
     6     3     4   ar
     7    13    11    1
     8    12    10   ar
     9     4    11   ar
    10     4     5   ar
    11    11     8   ar
    12    10     5   ar
    13     5     6   ar
    14     8     7   ar
    15     6     7   ar
    16     6     9    1
