@<TRIPOS>MOLECULE
smi_total_2_1_replica-1.pdbqt
 13 13 0 0 0
SMALL
GASTEIGER

@<TRIPOS>ATOM
      1  C          2.7510   58.2430   11.2760 C.3     1  LIG1        0.0000
      2  C          1.9390   57.1780   10.5250 C.3     1  LIG1        0.0000
      3  C          1.9840   55.7960   11.2110 C.3     1  LIG1        0.0000
      4  C          0.5950   55.1980   11.4810 C.3     1  LIG1        0.0000
      5  C          0.7480   53.7040   11.2320 C.3     1  LIG1        0.0000
      6  C          1.7030   53.6530   10.0550 C.3     1  LIG1        0.0000
      7  C          2.7260   54.7380   10.3720 C.3     1  LIG1        0.0000
      8  C          3.4970   57.7740   12.5370 C.3     1  LIG1        0.0000
      9  C          4.9700   57.3620   12.4160 C.3     1  LIG1        0.0000
     10  C          5.3300   56.0150   13.0330 C.3     1  LIG1        0.0000
     11  C          6.0510   55.1040   12.0250 C.3     1  LIG1        0.0000
     12  C          6.2630   55.7800   10.6660 C.3     1  LIG1        0.0000
     13  C          7.7320   56.0170   10.3420 C.3     1  LIG1        0.0000
@<TRIPOS>BOND
     1     6     7    1
     2     6     5    1
     3    13    12    1
     4     7     3    1
     5     2     3    1
     6     2     1    1
     7    12    11    1
     8     3     4    1
     9     5     4    1
    10     1     8    1
    11    11    10    1
    12     9     8    1
    13     9    10    1
