@<TRIPOS>MOLECULE
smi_total_3_1_replica-1.pdbqt
 12 11 0 0 0
SMALL
GASTEIGER

@<TRIPOS>ATOM
      1  C          6.1460   56.7320   11.4410 C.3     1  LIG1        0.0000
      2  C          4.9610   55.7960   11.1090 C.3     1  LIG1        0.0000
      3  C          3.5410   56.3220   11.3890 C.3     1  LIG1        0.0000
      4  C          2.4370   55.5970   10.6210 C.3     1  LIG1        0.0000
      5  C          1.1630   55.3930   11.4240 C.3     1  LIG1        0.0000
      6  C          0.5420   54.0310   11.0850 C.3     1  LIG1        0.0000
      7  C          1.4480   53.2670   10.1350 C.3     1  LIG1        0.0000
      8  C          7.4440   56.4690   10.6720 C.3     1  LIG1        0.0000
      9  C          7.7180   54.9990   10.3410 C.3     1  LIG1        0.0000
     10  C          8.2880   54.8030    8.9150 C.3     1  LIG1        0.0000
     11  C          9.4810   55.7290    8.6520 C.3     1  LIG1        0.0000
     12  C         10.2130   55.5070    7.3370 C.3     1  LIG1        0.0000
@<TRIPOS>BOND
     1    12    11    1
     2    11    10    1
     3    10     9    1
     4     7     6    1
     5     9     8    1
     6     4     3    1
     7     4     5    1
     8     8     1    1
     9     6     5    1
    10     2     3    1
    11     2     1    1
