@<TRIPOS>MOLECULE
smi_total_3_1_replica-1.pdbqt
 12 11 0 0 0
SMALL
GASTEIGER

@<TRIPOS>ATOM
      1  C          5.4520   56.9210   11.6150 C.3     1  LIG1        0.0000
      2  C          4.0870   56.5260   12.2260 C.3     1  LIG1        0.0000
      3  C          2.8230   57.1270   11.5830 C.3     1  LIG1        0.0000
      4  C          1.8870   56.0980   10.9500 C.3     1  LIG1        0.0000
      5  C          2.6090   54.9390   10.2820 C.3     1  LIG1        0.0000
      6  C          1.7810   53.6550   10.4230 C.3     1  LIG1        0.0000
      7  C          0.5580   53.9140   11.2850 C.3     1  LIG1        0.0000
      8  C          6.1650   55.8310   10.8100 C.3     1  LIG1        0.0000
      9  C          7.6860   55.9800   10.7160 C.3     1  LIG1        0.0000
     10  C          8.4390   55.0620   11.7110 C.3     1  LIG1        0.0000
     11  C          7.4750   54.1560   12.4830 C.3     1  LIG1        0.0000
     12  C          8.1220   53.0960   13.3610 C.3     1  LIG1        0.0000
@<TRIPOS>BOND
     1     5     6    1
     2     5     4    1
     3     6     7    1
     4     9     8    1
     5     9    10    1
     6     8     1    1
     7     4     3    1
     8     3     2    1
     9     1     2    1
    10    10    11    1
    11    11    12    1
