@<TRIPOS>MOLECULE
smi_total_2_1_replica-1.pdbqt
 13 13 0 0 0
SMALL
GASTEIGER

@<TRIPOS>ATOM
      1  C          4.6890   55.4910   11.6510 C.3     1  LIG1        0.0000
      2  C          3.3990   56.3210   11.5930 C.3     1  LIG1        0.0000
      3  C          2.3220   55.6900   10.6850 C.3     1  LIG1        0.0000
      4  C          2.6720   54.2710   10.2100 C.3     1  LIG1        0.0000
      5  C          1.3520   53.5140   10.2080 C.3     1  LIG1        0.0000
      6  C          0.6420   54.0670   11.4290 C.3     1  LIG1        0.0000
      7  C          0.9550   55.5590   11.3840 C.3     1  LIG1        0.0000
      8  C          5.8420   55.9500   10.7420 C.3     1  LIG1        0.0000
      9  C          7.2100   56.2450   11.3720 C.3     1  LIG1        0.0000
     10  C          7.5610   57.7200   11.5250 C.3     1  LIG1        0.0000
     11  C          6.9010   58.3330   12.7730 C.3     1  LIG1        0.0000
     12  C          6.2540   59.6930   12.4890 C.3     1  LIG1        0.0000
     13  C          4.8460   59.5760   11.9240 C.3     1  LIG1        0.0000
@<TRIPOS>BOND
     1     5     4    1
     2     5     6    1
     3     4     3    1
     4     3     7    1
     5     3     2    1
     6     8     9    1
     7     8     1    1
     8     9    10    1
     9     7     6    1
    10    10    11    1
    11     2     1    1
    12    13    12    1
    13    12    11    1
