@<TRIPOS>MOLECULE
smi_total_3_1_replica-1.pdbqt
 12 11 0 0 0
SMALL
GASTEIGER

@<TRIPOS>ATOM
      1  C          5.6710   55.0720   11.9170 C.3     1  LIG1        0.0000
      2  C          7.1750   55.3600   11.7010 C.3     1  LIG1        0.0000
      3  C          7.6400   55.6570   10.2630 C.3     1  LIG1        0.0000
      4  C          8.9270   56.4760   10.1730 C.3     1  LIG1        0.0000
      5  C          9.7600   56.1790    8.9360 C.3     1  LIG1        0.0000
      6  C          9.3950   54.7960    8.3790 C.3     1  LIG1        0.0000
      7  C         10.4780   53.7910    8.7290 C.3     1  LIG1        0.0000
      8  C          4.7070   55.8130   10.9850 C.3     1  LIG1        0.0000
      9  C          3.4280   56.3310   11.6490 C.3     1  LIG1        0.0000
     10  C          2.1430   55.8300   10.9440 C.3     1  LIG1        0.0000
     11  C          2.3440   54.4440   10.3220 C.3     1  LIG1        0.0000
     12  C          1.1950   53.4640   10.5030 C.3     1  LIG1        0.0000
@<TRIPOS>BOND
     1     6     7    1
     2     6     5    1
     3     5     4    1
     4     4     3    1
     5     3     2    1
     6    11    12    1
     7    11    10    1
     8    10     9    1
     9     8     9    1
    10     8     1    1
    11     2     1    1
