@<TRIPOS>MOLECULE
smi_total_2_1_replica-1.pdbqt
 13 13 0 0 0
SMALL
GASTEIGER

@<TRIPOS>ATOM
      1  C          4.4640   55.9180   11.7380 C.2     1  LIG1        0.0000
      2  C          3.0790   56.5710   11.6300 C.3     1  LIG1        0.0000
      3  C          2.1240   55.7980   10.6950 C.3     1  LIG1        0.0000
      4  C          2.6830   54.4450   10.2280 C.3     1  LIG1        0.0000
      5  C          1.4840   53.5080   10.1940 C.3     1  LIG1        0.0000
      6  C          0.6750   53.9500   11.3980 C.3     1  LIG1        0.0000
      7  C          0.7730   55.4710   11.3610 C.3     1  LIG1        0.0000
      8  C          5.6730   56.8680   11.7470 C.2     1  LIG1        0.0000
      9  C          7.0680   56.2970   11.4590 C.3     1  LIG1        0.0000
     10  C          7.2450   55.6460   10.0920 C.3     1  LIG1        0.0000
     11  C          8.7000   55.7480    9.6000 C.3     1  LIG1        0.0000
     12  C          8.9990   54.7870    8.4450 C.3     1  LIG1        0.0000
     13  C         10.4830   54.6930    8.1190 C.3     1  LIG1        0.0000
@<TRIPOS>BOND
     1    13    12    1
     2    12    11    1
     3    11    10    1
     4    10     9    1
     5     5     4    1
     6     5     6    1
     7     4     3    1
     8     3     7    1
     9     3     2    1
    10     7     6    1
    11     9     8    1
    12     2     1    1
    13     1     8    2
