@<TRIPOS>MOLECULE
smi_total_5_1_replica-1.pdbqt
 14 15 0 0 0
SMALL
GASTEIGER

@<TRIPOS>ATOM
      1  C          4.8650   56.5810   11.4330 C.3     1  LIG1        0.0000
      2  C          3.5010   56.0490   10.9160 C.3     1  LIG1        0.0000
      3  C          2.3300   56.8240   11.5660 C.3     1  LIG1        0.0000
      4  C          0.9750   56.3060   11.0620 C.3     1  LIG1        0.0000
      5  C          0.8190   54.7930   11.1980 C.3     1  LIG1        0.0000
      6  C          1.9780   54.0520   10.5470 C.3     1  LIG1        0.0000
      7  C          2.4130   56.8070   13.1020 C.3     1  LIG1        0.0000
      8  C          3.7560   57.3370   13.5910 C.3     1  LIG1        0.0000
      9  C          3.3280   54.5270   11.0800 C.3     1  LIG1        0.0000
     10  C          4.9280   56.5810   12.9720 C.3     1  LIG1        0.0000
     11  C          6.0990   55.8460   10.8600 C.3     1  LIG1        0.0000
     12  C          7.4030   56.6380   11.0050 C.3     1  LIG1        0.0000
     13  C          8.5480   55.9840   10.2320 C.3     1  LIG1        0.0000
     14  C          8.0240   54.9570    9.2390 C.3     1  LIG1        0.0000
@<TRIPOS>BOND
     1    14    13    1
     2    13    12    1
     3     6     9    1
     4     6     5    1
     5    11    12    1
     6    11     1    1
     7     2     9    1
     8     2     1    1
     9     2     3    1
    10     4     5    1
    11     4     3    1
    12     1    10    1
    13     3     7    1
    14    10     8    1
    15     7     8    1
