@<TRIPOS>MOLECULE
smi_total_5_2_replica-1.pdbqt
 13 12 0 0 0
SMALL
GASTEIGER

@<TRIPOS>ATOM
      1  C          6.1690   54.8940   11.3910 C.3     1  LIG1        0.0040
      2  C          7.0870   54.3050   12.4760 C.3     1  LIG1        0.0000
      3  C          6.8810   55.8190   10.3710 C.3     1  LIG1        0.0260
      4  C          8.2770   55.5450    9.9020 C.2     1  LIG1       -0.0300
      5  C          8.6480   55.0150    8.7160 C.2     1  LIG1       -0.0300
      6  C         10.0370   54.6830    8.2900 C.3     1  LIG1        0.0260
      7  C         10.3720   55.4130    7.0040 C.3     1  LIG1        0.0050
      8  C          5.0650   55.6860   12.1300 C.3     1  LIG1        0.0050
      9  C          3.8650   56.0740   11.2620 C.3     1  LIG1        0.0250
     10  C          3.1410   54.8870   10.6920 C.2     1  LIG1       -0.0340
     11  C          1.8220   54.6210   10.7340 C.2     1  LIG1       -0.0480
     12  C          1.2770   53.3720   10.0960 C.3     1  LIG1        0.0260
     13  C          0.7680   55.4740   11.3860 C.3     1  LIG1        0.0260
@<TRIPOS>BOND
     1     7     6    1
     2     6     5    1
     3     5     4    2
     4     4     3    1
     5    12    11    1
     6     3     1    1
     7    10    11    2
     8    10     9    1
     9    11    13    1
    10     9     8    1
    11     1     8    1
    12     1     2    1
