@<TRIPOS>MOLECULE
smi_total_5_2_replica-1.pdbqt
 13 12 0 0 0
SMALL
GASTEIGER

@<TRIPOS>ATOM
      1  C          6.4140   56.1440   11.0780 C.3     1  LIG1        0.0040
      2  C          7.2580   57.3430   11.5430 C.3     1  LIG1        0.0000
      3  C          6.1070   55.0990   12.1820 C.3     1  LIG1        0.0260
      4  C          7.1870   54.5320   13.0520 C.2     1  LIG1       -0.0300
      5  C          7.6820   53.2760   13.0200 C.2     1  LIG1       -0.0300
      6  C          8.7080   52.7050   13.9370 C.3     1  LIG1        0.0260
      7  C          8.5800   51.1950   13.9820 C.3     1  LIG1        0.0050
      8  C          7.1990   55.4710    9.9290 C.3     1  LIG1        0.0050
      9  C          8.6700   55.8840    9.8290 C.3     1  LIG1        0.0250
     10  C          9.6200   54.7570   10.1220 C.2     1  LIG1       -0.0340
     11  C         10.4650   54.6340   11.1630 C.2     1  LIG1       -0.0480
     12  C         11.3430   53.4180   11.2900 C.3     1  LIG1        0.0260
     13  C         10.6490   55.6300   12.2760 C.3     1  LIG1        0.0260
@<TRIPOS>BOND
     1     9     8    1
     2     9    10    1
     3     8     1    1
     4    10    11    2
     5     1     2    1
     6     1     3    1
     7    11    12    1
     8    11    13    1
     9     3     4    1
    10     5     4    2
    11     5     6    1
    12     6     7    1
