@<TRIPOS>MOLECULE
smi_total_1_1_replica-1.pdbqt
 15 16 0 0 0
SMALL
GASTEIGER

@<TRIPOS>ATOM
      1  C          5.6120   60.9250   13.2460 C.3     1  LIG1        0.0310
      2  C          4.7050   59.8480   12.7320 C.ar    1  LIG1       -0.0220
      3  C          5.2270   58.6020   12.3520 C.ar    1  LIG1       -0.0040
      4  C          4.4310   57.5500   11.8310 C.ar    1  LIG1       -0.0040
      5  C          3.0340   57.8050   11.6850 C.ar    1  LIG1       -0.0040
      6  C          2.1770   56.7980   11.1710 C.ar    1  LIG1       -0.0220
      7  C          2.7050   55.5570   10.8060 C.ar    1  LIG1       -0.0040
      8  C          4.0630   55.3010   10.9440 C.ar    1  LIG1       -0.0040
      9  C          0.6950   57.0130   10.9960 C.3     1  LIG1        0.0310
     10  C          2.5290   59.0730   12.0580 C.ar    1  LIG1       -0.0010
     11  C          4.9480   56.2720   11.4500 C.ar    1  LIG1       -0.0220
     12  C          3.3480   60.0800   12.5670 C.ar    1  LIG1       -0.0040
     13  C          6.4130   55.8400   11.5420 C.3     1  LIG1        0.0220
     14  C          6.6270   54.5830   12.3890 C.3     1  LIG1        0.0050
     15  C          7.1150   55.7670   10.1830 C.3     1  LIG1        0.0050
@<TRIPOS>BOND
     1    15    13    1
     2     7     8   ar
     3     7     6   ar
     4     8    11   ar
     5     9     6    1
     6     6     5   ar
     7    11    13    1
     8    11     4   ar
     9    13    14    1
    10     5     4   ar
    11     5    10   ar
    12     4     3   ar
    13    10    12   ar
    14     3     2   ar
    15    12     2   ar
    16     2     1    1
