@<TRIPOS>MOLECULE
smi_total_1_1_replica-1.pdbqt
 15 16 0 0 0
SMALL
GASTEIGER

@<TRIPOS>ATOM
      1  C          1.5180   53.5630   10.2270 C.3     1  LIG1        0.0310
      2  C          2.3160   54.7390   10.7030 C.ar    1  LIG1       -0.0220
      3  C          1.7320   56.0140   10.7660 C.ar    1  LIG1       -0.0040
      4  C          2.4360   57.1730   11.1790 C.ar    1  LIG1       -0.0040
      5  C          3.8100   57.0070   11.5290 C.ar    1  LIG1       -0.0040
      6  C          4.5760   58.1250   11.9520 C.ar    1  LIG1       -0.0220
      7  C          3.9820   59.3870   12.0220 C.ar    1  LIG1       -0.0040
      8  C          2.6470   59.5570   11.6820 C.ar    1  LIG1       -0.0040
      9  C          6.0290   58.0070   12.3340 C.3     1  LIG1        0.0310
     10  C          4.3850   55.7180   11.4440 C.ar    1  LIG1       -0.0010
     11  C          1.8510   58.4760   11.2580 C.ar    1  LIG1       -0.0220
     12  C          3.6560   54.6040   11.0330 C.ar    1  LIG1       -0.0040
     13  C          0.3990   58.8230   10.9180 C.3     1  LIG1        0.0220
     14  C         -0.2070   59.8830   11.8420 C.3     1  LIG1        0.0050
     15  C          0.1750   59.1300    9.4350 C.3     1  LIG1        0.0050
@<TRIPOS>BOND
     1    15    13    1
     2     1     2    1
     3     2     3   ar
     4     2    12   ar
     5     3     4   ar
     6    13    11    1
     7    13    14    1
     8    12    10   ar
     9     4    11   ar
    10     4     5   ar
    11    11     8   ar
    12    10     5   ar
    13     5     6   ar
    14     8     7   ar
    15     6     7   ar
    16     6     9    1
