@<TRIPOS>MOLECULE
smi_total_2_1_replica-1.pdbqt
 13 13 0 0 0
SMALL
GASTEIGER

@<TRIPOS>ATOM
      1  C          6.0560   55.6590   11.7510 C.3     1  LIG1        0.0000
      2  C          6.9310   56.3780   10.7150 C.3     1  LIG1        0.0000
      3  C          8.1890   55.5700   10.3290 C.3     1  LIG1        0.0000
      4  C          8.0480   54.8120    8.9990 C.3     1  LIG1        0.0000
      5  C          9.4160   54.9040    8.3410 C.3     1  LIG1        0.0000
      6  C          9.8760   56.3020    8.7090 C.3     1  LIG1        0.0000
      7  C          9.4380   56.4560   10.1610 C.3     1  LIG1        0.0000
      8  C          4.6470   55.2480   11.2930 C.2     1  LIG1        0.0000
      9  C          3.5670   56.3290   11.1580 C.2     1  LIG1        0.0000
     10  C          2.2860   55.8960   10.4540 C.3     1  LIG1        0.0000
     11  C          1.2140   55.4380   11.4600 C.3     1  LIG1        0.0000
     12  C          0.7140   54.0160   11.1810 C.3     1  LIG1        0.0000
     13  C          1.4910   53.3190   10.0730 C.3     1  LIG1        0.0000
@<TRIPOS>BOND
     1     5     6    1
     2     5     4    1
     3     6     7    1
     4     4     3    1
     5    13    12    1
     6     7     3    1
     7     3     2    1
     8    10     9    1
     9    10    11    1
    10     2     1    1
    11     9     8    2
    12    12    11    1
    13     8     1    1
