@<TRIPOS>MOLECULE
smi_total_5_2_replica-1.pdbqt
 13 12 0 0 0
SMALL
GASTEIGER

@<TRIPOS>ATOM
      1  C          4.1440   57.9810   12.8480 C.3     1  LIG1        0.0040
      2  C          4.4040   56.9230   13.9350 C.3     1  LIG1        0.0000
      3  C          3.4320   57.4450   11.5790 C.3     1  LIG1        0.0260
      4  C          3.1680   55.9830   11.3830 C.2     1  LIG1       -0.0300
      5  C          2.3970   55.4160   10.4300 C.2     1  LIG1       -0.0300
      6  C          2.0870   53.9650   10.2890 C.3     1  LIG1        0.0260
      7  C          0.8240   53.6290   11.0580 C.3     1  LIG1        0.0050
      8  C          5.5210   58.5670   12.4640 C.3     1  LIG1        0.0050
      9  C          6.7020   57.6120   12.6570 C.3     1  LIG1        0.0250
     10  C          7.1840   57.0020   11.3710 C.2     1  LIG1       -0.0340
     11  C          7.1120   55.7140   10.9850 C.2     1  LIG1       -0.0480
     12  C          7.6480   55.2900    9.6450 C.3     1  LIG1        0.0260
     13  C          6.5290   54.5820   11.7870 C.3     1  LIG1        0.0260
@<TRIPOS>BOND
     1    12    11    1
     2     6     5    1
     3     6     7    1
     4     5     4    2
     5    11    10    2
     6    11    13    1
     7    10     9    1
     8     4     3    1
     9     3     1    1
    10     8     9    1
    11     8     1    1
    12     1     2    1
