@<TRIPOS>MOLECULE
smi_total_1_1_replica-1.pdbqt
 15 16 0 0 0
SMALL
GASTEIGER

@<TRIPOS>ATOM
      1  C         10.9160   55.1250    7.8450 C.3     1  LIG1        0.0310
      2  C          9.7320   55.4850    8.6910 C.ar    1  LIG1       -0.0220
      3  C          9.7540   56.6430    9.4840 C.ar    1  LIG1       -0.0040
      4  C          8.6820   57.0280   10.3290 C.ar    1  LIG1       -0.0040
      5  C          7.5420   56.1700   10.3630 C.ar    1  LIG1       -0.0040
      6  C          6.4320   56.4940   11.1860 C.ar    1  LIG1       -0.0220
      7  C          6.4600   57.6540   11.9630 C.ar    1  LIG1       -0.0040
      8  C          7.5650   58.4940   11.9370 C.ar    1  LIG1       -0.0040
      9  C          5.2030   55.6230   11.2600 C.3     1  LIG1        0.0310
     10  C          7.5460   54.9990    9.5690 C.ar    1  LIG1       -0.0010
     11  C          8.6870   58.2100   11.1340 C.ar    1  LIG1       -0.0220
     12  C          8.6210   54.6580    8.7510 C.ar    1  LIG1       -0.0040
     13  C          9.8250   59.2310   11.2140 C.3     1  LIG1        0.0220
     14  C          9.6640   60.3990   10.2380 C.3     1  LIG1        0.0050
     15  C         10.1390   59.6870   12.6410 C.3     1  LIG1        0.0050
@<TRIPOS>BOND
     1     1     2    1
     2     2    12   ar
     3     2     3   ar
     4    12    10   ar
     5     3     4   ar
     6    10     5   ar
     7    14    13    1
     8     4     5   ar
     9     4    11   ar
    10     5     6   ar
    11    11    13    1
    12    11     8   ar
    13     6     9    1
    14     6     7   ar
    15    13    15    1
    16     8     7   ar
