@<TRIPOS>MOLECULE
smi_total_1_1_replica-1.pdbqt
 15 16 0 0 0
SMALL
GASTEIGER

@<TRIPOS>ATOM
      1  C          6.8080   57.7580   11.9540 C.3     1  LIG1        0.0310
      2  C          5.4990   57.0870   11.6640 C.ar    1  LIG1       -0.0220
      3  C          4.2910   57.7060   12.0200 C.ar    1  LIG1       -0.0040
      4  C          3.0200   57.1160   11.8020 C.ar    1  LIG1       -0.0040
      5  C          3.0000   55.8230   11.2000 C.ar    1  LIG1       -0.0040
      6  C          1.7630   55.1730   10.9510 C.ar    1  LIG1       -0.0220
      7  C          0.5660   55.8020   11.3000 C.ar    1  LIG1       -0.0040
      8  C          0.5760   57.0600   11.8870 C.ar    1  LIG1       -0.0040
      9  C          1.6840   53.8070   10.3170 C.3     1  LIG1        0.0310
     10  C          4.2290   55.2080   10.8620 C.ar    1  LIG1       -0.0010
     11  C          1.7810   57.7400   12.1510 C.ar    1  LIG1       -0.0220
     12  C          5.4570   55.8240   11.0940 C.ar    1  LIG1       -0.0040
     13  C          1.6280   59.1170   12.8020 C.3     1  LIG1        0.0220
     14  C          1.5610   60.2650   11.7910 C.3     1  LIG1        0.0050
     15  C          0.5100   59.1790   13.8460 C.3     1  LIG1        0.0050
@<TRIPOS>BOND
     1     9     6    1
     2    10    12   ar
     3    10     5   ar
     4     6     5   ar
     5     6     7   ar
     6    12     2   ar
     7     5     4   ar
     8     7     8   ar
     9     2     1    1
    10     2     3   ar
    11    14    13    1
    12     4     3   ar
    13     4    11   ar
    14     8    11   ar
    15    11    13    1
    16    13    15    1
