@<TRIPOS>MOLECULE
smi_total_5_1_replica-1.pdbqt
 14 15 0 0 0
SMALL
GASTEIGER

@<TRIPOS>ATOM
      1  C          4.9290   56.8290   11.5370 C.3     1  LIG1        0.0000
      2  C          5.5820   57.1760   12.9020 C.3     1  LIG1        0.0000
      3  C          7.0710   57.5540   12.7160 C.3     1  LIG1        0.0000
      4  C          7.7280   57.8980   14.0620 C.3     1  LIG1        0.0000
      5  C          7.5290   56.8190   15.1230 C.3     1  LIG1        0.0000
      6  C          6.0570   56.4670   15.2930 C.3     1  LIG1        0.0000
      7  C          7.8510   56.4630   11.9630 C.3     1  LIG1        0.0000
      8  C          7.1990   56.1410   10.6230 C.3     1  LIG1        0.0000
      9  C          5.4100   56.0750   13.9670 C.3     1  LIG1        0.0000
     10  C          5.7310   55.7540   10.7810 C.3     1  LIG1        0.0000
     11  C          3.4440   56.4090   11.6240 C.3     1  LIG1        0.0000
     12  C          3.1060   55.1820   10.7710 C.3     1  LIG1        0.0000
     13  C          1.6150   54.8500   10.8270 C.3     1  LIG1        0.0000
     14  C          1.3570   53.4110   10.4060 C.3     1  LIG1        0.0000
@<TRIPOS>BOND
     1    14    13    1
     2     8    10    1
     3     8     7    1
     4    12    13    1
     5    12    11    1
     6    10     1    1
     7     1    11    1
     8     1     2    1
     9     7     3    1
    10     3     2    1
    11     3     4    1
    12     2     9    1
    13     9     6    1
    14     4     5    1
    15     5     6    1
