@<TRIPOS>MOLECULE
smi_total_2_1_replica-1.pdbqt
 13 13 0 0 0
SMALL
GASTEIGER

@<TRIPOS>ATOM
      1  C          4.4510   55.9240   11.9610 C.3     1  LIG1        0.0000
      2  C          3.0730   56.5780   11.7870 C.3     1  LIG1        0.0000
      3  C          2.1820   55.8330   10.7690 C.3     1  LIG1        0.0000
      4  C          2.7560   54.4800   10.3220 C.3     1  LIG1        0.0000
      5  C          1.5510   53.5620   10.1810 C.3     1  LIG1        0.0000
      6  C          0.6580   53.9970   11.3270 C.3     1  LIG1        0.0000
      7  C          0.7800   55.5160   11.3240 C.3     1  LIG1        0.0000
      8  C          5.6350   56.6250   11.2750 C.3     1  LIG1        0.0000
      9  C          6.6640   55.7740   10.5190 C.3     1  LIG1        0.0000
     10  C          7.9550   55.4780   11.2730 C.3     1  LIG1        0.0000
     11  C          7.7780   54.3150   12.2660 C.3     1  LIG1        0.0000
     12  C          7.8150   54.7760   13.7260 C.3     1  LIG1        0.0000
     13  C          9.2300   54.9080   14.2730 C.3     1  LIG1        0.0000
@<TRIPOS>BOND
     1     5     4    1
     2     5     6    1
     3     4     3    1
     4     9    10    1
     5     9     8    1
     6     3     7    1
     7     3     2    1
     8    10    11    1
     9     8     1    1
    10     7     6    1
    11     2     1    1
    12    11    12    1
    13    12    13    1
