@<TRIPOS>MOLECULE
smi_total_1_1_replica-1.pdbqt
 15 16 0 0 0
SMALL
GASTEIGER

@<TRIPOS>ATOM
      1  C          8.1160   56.3690   13.1010 C.3     1  LIG1        0.0310
      2  C          6.7500   56.2150   12.5030 C.ar    1  LIG1       -0.0220
      3  C          5.8840   57.3160   12.4190 C.ar    1  LIG1       -0.0040
      4  C          4.5700   57.2350   11.8930 C.ar    1  LIG1       -0.0040
      5  C          4.1290   55.9540   11.4450 C.ar    1  LIG1       -0.0040
      6  C          2.8250   55.8000   10.9060 C.ar    1  LIG1       -0.0220
      7  C          1.9750   56.9040   10.8180 C.ar    1  LIG1       -0.0040
      8  C          2.3960   58.1540   11.2520 C.ar    1  LIG1       -0.0040
      9  C          2.3070   54.4700   10.4180 C.3     1  LIG1        0.0310
     10  C          5.0100   54.8530   11.5530 C.ar    1  LIG1       -0.0010
     11  C          3.6810   58.3520   11.7930 C.ar    1  LIG1       -0.0220
     12  C          6.2950   54.9770   12.0760 C.ar    1  LIG1       -0.0040
     13  C          3.9970   59.7850   12.2270 C.3     1  LIG1        0.0220
     14  C          3.6540   60.8330   11.1650 C.3     1  LIG1        0.0050
     15  C          3.4490   60.1400   13.6110 C.3     1  LIG1        0.0050
@<TRIPOS>BOND
     1     9     6    1
     2     7     6   ar
     3     7     8   ar
     4     6     5   ar
     5    14    13    1
     6     8    11   ar
     7     5    10   ar
     8     5     4   ar
     9    10    12   ar
    10    11     4   ar
    11    11    13    1
    12     4     3   ar
    13    12     2   ar
    14    13    15    1
    15     3     2   ar
    16     2     1    1
