@<TRIPOS>MOLECULE
smi_total_5_1_replica-1.pdbqt
 14 15 0 0 0
SMALL
GASTEIGER

@<TRIPOS>ATOM
      1  C          7.6280   53.9270   12.4640 C.3     1  LIG1        0.0000
      2  C          6.2730   54.6490   12.6930 C.3     1  LIG1        0.0000
      3  C          5.6810   55.1400   11.3510 C.3     1  LIG1        0.0000
      4  C          4.3400   55.8580   11.5660 C.3     1  LIG1        0.0000
      5  C          4.4100   56.9670   12.6120 C.3     1  LIG1        0.0000
      6  C          4.9890   56.4600   13.9260 C.3     1  LIG1        0.0000
      7  C          6.6770   56.0140   10.5700 C.3     1  LIG1        0.0000
      8  C          7.9990   55.2870   10.3500 C.3     1  LIG1        0.0000
      9  C          6.3470   55.7890   13.7270 C.3     1  LIG1        0.0000
     10  C          8.6090   54.8010   11.6620 C.3     1  LIG1        0.0000
     11  C          8.3130   53.4240   13.7560 C.3     1  LIG1        0.0000
     12  C          8.9990   52.0630   13.5920 C.3     1  LIG1        0.0000
     13  C          8.1230   50.9250   14.1140 C.3     1  LIG1        0.0000
     14  C          8.7830   49.5730   13.8820 C.3     1  LIG1        0.0000
@<TRIPOS>BOND
     1     8     7    1
     2     8    10    1
     3     7     3    1
     4     3     4    1
     5     3     2    1
     6     4     5    1
     7    10     1    1
     8     1     2    1
     9     1    11    1
    10     5     6    1
    11     2     9    1
    12    12    11    1
    13    12    13    1
    14     9     6    1
    15    14    13    1
