@<TRIPOS>MOLECULE
smi_total_2_1_replica-1.pdbqt
 13 13 0 0 0
SMALL
GASTEIGER

@<TRIPOS>ATOM
      1  C          5.0450   57.1290   12.8100 C.3     1  LIG1        0.0000
      2  C          5.4260   55.6720   13.1060 C.3     1  LIG1        0.0000
      3  C          6.0280   54.9500   11.8810 C.3     1  LIG1        0.0000
      4  C          6.2560   55.8720   10.6740 C.3     1  LIG1        0.0000
      5  C          7.5550   55.3920   10.0440 C.3     1  LIG1        0.0000
      6  C          8.3950   55.0110   11.2470 C.3     1  LIG1        0.0000
      7  C          7.4030   54.3210   12.1770 C.3     1  LIG1        0.0000
      8  C          3.6640   57.5910   13.3010 C.3     1  LIG1        0.0000
      9  C          2.4080   56.9830   12.6620 C.3     1  LIG1        0.0000
     10  C          2.4150   56.9030   11.1400 C.3     1  LIG1        0.0000
     11  C          2.5600   55.4510   10.6490 C.3     1  LIG1        0.0000
     12  C          1.2950   54.6200   10.8900 C.3     1  LIG1        0.0000
     13  C          1.3100   53.2870   10.1540 C.3     1  LIG1        0.0000
@<TRIPOS>BOND
     1     5     4    1
     2     5     6    1
     3    13    12    1
     4    11    12    1
     5    11    10    1
     6     4     3    1
     7    10     9    1
     8     6     7    1
     9     3     7    1
    10     3     2    1
    11     9     8    1
    12     1     2    1
    13     1     8    1
