@<TRIPOS>MOLECULE
smi_total_5_2_replica-1.pdbqt
 13 12 0 0 0
SMALL
GASTEIGER

@<TRIPOS>ATOM
      1  C          1.9510   55.0430   10.5210 C.3     1  LIG1        0.0040
      2  C          1.5000   53.5720   10.5240 C.3     1  LIG1        0.0000
      3  C          3.4540   55.2610   10.8370 C.3     1  LIG1        0.0260
      4  C          3.9060   56.2610   11.8580 C.2     1  LIG1       -0.0300
      5  C          4.8670   57.1980   11.7090 C.2     1  LIG1       -0.0300
      6  C          5.3550   58.1390   12.7560 C.3     1  LIG1        0.0260
      7  C          5.5400   59.5220   12.1630 C.3     1  LIG1        0.0050
      8  C          1.0870   55.7720   11.5760 C.3     1  LIG1        0.0050
      9  C          0.1950   56.8840   11.0170 C.3     1  LIG1        0.0250
     10  C          0.9760   58.0400   10.4590 C.2     1  LIG1       -0.0340
     11  C          1.5850   59.0340   11.1350 C.2     1  LIG1       -0.0480
     12  C          2.3310   60.1100   10.3950 C.3     1  LIG1        0.0260
     13  C          1.6020   59.2050   12.6300 C.3     1  LIG1        0.0260
@<TRIPOS>BOND
     1    12    11    1
     2    10     9    1
     3    10    11    2
     4     1     2    1
     5     1     3    1
     6     1     8    1
     7     3     4    1
     8     9     8    1
     9    11    13    1
    10     5     4    2
    11     5     6    1
    12     7     6    1
