@<TRIPOS>MOLECULE
smi_total_3_1_replica-1.pdbqt
 12 11 0 0 0
SMALL
GASTEIGER

@<TRIPOS>ATOM
      1  C          2.7550   59.4460   11.2360 C.2     1  LIG1        0.0000
      2  C          4.0450   59.4000   12.0880 C.2     1  LIG1        0.0000
      3  C          4.1000   58.3770   13.2370 C.3     1  LIG1        0.0000
      4  C          4.9860   57.1640   12.9600 C.3     1  LIG1        0.0000
      5  C          5.7970   57.2750   11.6790 C.3     1  LIG1        0.0000
      6  C          5.8520   55.9130   10.9740 C.3     1  LIG1        0.0000
      7  C          5.5830   54.7990   11.9700 C.3     1  LIG1        0.0000
      8  C          1.7660   58.2980   11.4570 C.3     1  LIG1        0.0000
      9  C          1.9590   57.0860   10.5400 C.3     1  LIG1        0.0000
     10  C          1.9060   55.7420   11.3080 C.3     1  LIG1        0.0000
     11  C          2.3400   54.5690   10.4220 C.3     1  LIG1        0.0000
     12  C          1.3530   53.4160   10.3200 C.3     1  LIG1        0.0000
@<TRIPOS>BOND
     1    12    11    1
     2    11    10    1
     3     9    10    1
     4     9     8    1
     5     6     5    1
     6     6     7    1
     7     1     8    1
     8     1     2    2
     9     5     4    1
    10     2     3    1
    11     4     3    1
