@<TRIPOS>MOLECULE
smi_total_5_2_replica-1.pdbqt
 13 12 0 0 0
SMALL
GASTEIGER

@<TRIPOS>ATOM
      1  C          6.2000   56.0540   10.8800 C.3     1  LIG1        0.0040
      2  C          7.1960   57.1410   11.3220 C.3     1  LIG1        0.0000
      3  C          4.7970   56.1570   11.5310 C.3     1  LIG1        0.0260
      4  C          3.6320   55.3640   11.0200 C.2     1  LIG1       -0.0300
      5  C          2.3220   55.6620   11.1560 C.2     1  LIG1       -0.0300
      6  C          1.1730   54.8290   10.7030 C.3     1  LIG1        0.0260
      7  C          1.6050   53.3820   10.5650 C.3     1  LIG1        0.0050
      8  C          6.8420   54.6950   11.2390 C.3     1  LIG1        0.0050
      9  C          6.8910   54.3850   12.7380 C.3     1  LIG1        0.0250
     10  C          8.2910   54.2210   13.2600 C.2     1  LIG1       -0.0340
     11  C          8.8810   53.0980   13.7130 C.2     1  LIG1       -0.0480
     12  C         10.3060   53.1300   14.1940 C.3     1  LIG1        0.0260
     13  C          8.2420   51.7380   13.8050 C.3     1  LIG1        0.0260
@<TRIPOS>BOND
     1     7     6    1
     2     6     5    1
     3     1     8    1
     4     1     2    1
     5     1     3    1
     6     4     5    2
     7     4     3    1
     8     8     9    1
     9     9    10    1
    10    10    11    2
    11    11    13    1
    12    11    12    1
