@<TRIPOS>MOLECULE
smi_total_3_2_replica-1.pdbqt
 12 11 0 0 0
SMALL
GASTEIGER

@<TRIPOS>ATOM
      1  C          6.8880   54.7760   11.5160 C.3     1  LIG1        0.0000
      2  C          5.4250   54.8410   11.9700 C.3     1  LIG1        0.0000
      3  C          4.6180   56.0160   11.3660 C.3     1  LIG1        0.0000
      4  C          3.2770   55.5460   10.7910 C.3     1  LIG1        0.0000
      5  C          4.4640   57.1750   12.4020 C.3     1  LIG1        0.0000
      6  C          4.6370   56.6930   13.8470 C.3     1  LIG1        0.0000
      7  C          5.3950   58.3650   12.1490 C.3     1  LIG1        0.0000
      8  C          7.1110   55.6100   10.2490 C.3     1  LIG1        0.0000
      9  C          8.2400   56.6230   10.4410 C.3     1  LIG1        0.0000
     10  C          9.5060   56.2000    9.6920 C.3     1  LIG1        0.0000
     11  C          9.1940   55.1400    8.6350 C.3     1  LIG1        0.0000
     12  C         10.0010   55.3590    7.3660 C.3     1  LIG1        0.0000
@<TRIPOS>BOND
     1    12    11    1
     2    11    10    1
     3    10     9    1
     4     8     9    1
     5     8     1    1
     6     4     3    1
     7     3     2    1
     8     3     5    1
     9     1     2    1
    10     7     5    1
    11     5     6    1
