@<TRIPOS>MOLECULE
smi_total_3_2_replica-1.pdbqt
 12 11 0 0 0
SMALL
GASTEIGER

@<TRIPOS>ATOM
      1  C          4.7540   55.4630   11.3600 C.3     1  LIG1        0.0000
      2  C          5.9090   56.4520   11.1570 C.3     1  LIG1        0.0000
      3  C          7.3090   55.8750   11.4790 C.3     1  LIG1        0.0000
      4  C          7.2240   54.4300   11.9850 C.3     1  LIG1        0.0000
      5  C          8.2710   56.0370   10.2600 C.3     1  LIG1        0.0000
      6  C          9.7350   56.1920   10.6860 C.3     1  LIG1        0.0000
      7  C          8.1600   54.9130    9.2250 C.3     1  LIG1        0.0000
      8  C          3.4380   56.2010   11.6320 C.3     1  LIG1        0.0000
      9  C          2.3470   55.7740   10.6480 C.3     1  LIG1        0.0000
     10  C          1.0530   55.3990   11.3750 C.3     1  LIG1        0.0000
     11  C          0.7710   53.9000   11.2630 C.3     1  LIG1        0.0000
     12  C          1.4060   53.3010   10.0190 C.3     1  LIG1        0.0000
@<TRIPOS>BOND
     1     7     5    1
     2    12    11    1
     3     5     6    1
     4     5     3    1
     5     9    10    1
     6     9     8    1
     7     2     1    1
     8     2     3    1
     9    11    10    1
    10     1     8    1
    11     3     4    1
