@<TRIPOS>MOLECULE
smi_total_3_1_replica-1.pdbqt
 12 11 0 0 0
SMALL
GASTEIGER

@<TRIPOS>ATOM
      1  C          6.3430   56.8290   11.4330 C.2     1  LIG1        0.0000
      2  C          7.0030   55.6850   10.6290 C.3     1  LIG1        0.0000
      3  C          7.8820   54.6880   11.4070 C.3     1  LIG1        0.0000
      4  C          7.3740   54.3610   12.8110 C.3     1  LIG1        0.0000
      5  C          8.4350   53.7750   13.7280 C.3     1  LIG1        0.0000
      6  C          8.3630   52.2430   13.7010 C.3     1  LIG1        0.0000
      7  C          9.7500   51.6580   13.5040 C.3     1  LIG1        0.0000
      8  C          4.8260   56.7260   11.6220 C.2     1  LIG1        0.0000
      9  C          4.2000   55.4080   11.1570 C.3     1  LIG1        0.0000
     10  C          2.7240   55.5700   10.7190 C.3     1  LIG1        0.0000
     11  C          2.1560   54.2640   10.1540 C.3     1  LIG1        0.0000
     12  C          0.9580   53.6880   10.8940 C.3     1  LIG1        0.0000
@<TRIPOS>BOND
     1    11    10    1
     2    11    12    1
     3     2     3    1
     4     2     1    1
     5    10     9    1
     6     9     8    1
     7     3     4    1
     8     1     8    2
     9     4     5    1
    10     7     6    1
    11     6     5    1
