@<TRIPOS>MOLECULE
smi_total_2_1_replica-1.pdbqt
 13 13 0 0 0
SMALL
GASTEIGER

@<TRIPOS>ATOM
      1  C          7.1310   56.2920   11.0740 C.3     1  LIG1        0.0000
      2  C          7.4260   55.4400    9.8310 C.3     1  LIG1        0.0000
      3  C          8.9360   55.3050    9.5420 C.3     1  LIG1        0.0000
      4  C          9.2540   54.9660    8.0780 C.3     1  LIG1        0.0000
      5  C         10.5200   55.7460    7.7530 C.3     1  LIG1        0.0000
      6  C         10.3220   57.0440    8.5120 C.3     1  LIG1        0.0000
      7  C          9.7180   56.5990    9.8390 C.3     1  LIG1        0.0000
      8  C          6.1740   55.6840   12.1120 C.3     1  LIG1        0.0000
      9  C          4.8190   55.1380   11.6410 C.3     1  LIG1        0.0000
     10  C          3.8740   56.1620   11.0230 C.3     1  LIG1        0.0000
     11  C          2.4250   55.6460   10.9860 C.3     1  LIG1        0.0000
     12  C          2.2710   54.3840   10.1300 C.3     1  LIG1        0.0000
     13  C          1.2560   53.4010   10.6960 C.3     1  LIG1        0.0000
@<TRIPOS>BOND
     1     5     4    1
     2     5     6    1
     3     4     3    1
     4     6     7    1
     5     3     2    1
     6     3     7    1
     7     2     1    1
     8    12    13    1
     9    12    11    1
    10    11    10    1
    11    10     9    1
    12     1     8    1
    13     9     8    1
