@<TRIPOS>MOLECULE
smi_total_3_2_replica-1.pdbqt
 12 11 0 0 0
SMALL
GASTEIGER

@<TRIPOS>ATOM
      1  C          4.4320   55.8020   10.9990 C.3     1  LIG1        0.0000
      2  C          5.3720   54.8930   11.8010 C.3     1  LIG1        0.0000
      3  C          6.8780   55.1530   11.5570 C.3     1  LIG1        0.0000
      4  C          7.1380   55.6920   10.1450 C.3     1  LIG1        0.0000
      5  C          7.4740   56.0660   12.6760 C.3     1  LIG1        0.0000
      6  C          7.5240   57.5410   12.2620 C.3     1  LIG1        0.0000
      7  C          6.7600   55.9430   14.0260 C.3     1  LIG1        0.0000
      8  C          3.7640   56.8420   11.9060 C.3     1  LIG1        0.0000
      9  C          2.2670   56.5660   12.0590 C.3     1  LIG1        0.0000
     10  C          1.6930   55.8810   10.8170 C.3     1  LIG1        0.0000
     11  C          0.9350   54.6060   11.1890 C.3     1  LIG1        0.0000
     12  C          1.4280   53.4080   10.3960 C.3     1  LIG1        0.0000
@<TRIPOS>BOND
     1     4     3    1
     2    12    11    1
     3    10    11    1
     4    10     9    1
     5     1     2    1
     6     1     8    1
     7     3     2    1
     8     3     5    1
     9     8     9    1
    10     6     5    1
    11     5     7    1
