@<TRIPOS>MOLECULE
smi_total_5_1_replica-1.pdbqt
 14 15 0 0 0
SMALL
GASTEIGER

@<TRIPOS>ATOM
      1  C          6.4390   56.2600   11.4710 C.3     1  LIG1        0.0000
      2  C          4.9800   56.7890   11.5240 C.3     1  LIG1        0.0000
      3  C          4.6560   57.3610   12.9260 C.3     1  LIG1        0.0000
      4  C          3.2140   57.8860   12.9900 C.3     1  LIG1        0.0000
      5  C          2.1790   56.8660   12.5240 C.3     1  LIG1        0.0000
      6  C          2.5140   56.3220   11.1420 C.3     1  LIG1        0.0000
      7  C          4.9430   56.3420   14.0410 C.3     1  LIG1        0.0000
      8  C          6.3810   55.8380   13.9770 C.3     1  LIG1        0.0000
      9  C          3.9290   55.7510   11.0840 C.3     1  LIG1        0.0000
     10  C          6.7210   55.2590   12.6060 C.3     1  LIG1        0.0000
     11  C          6.8470   55.6400   10.1150 C.3     1  LIG1        0.0000
     12  C          8.3590   55.6600    9.8650 C.3     1  LIG1        0.0000
     13  C          8.7580   54.6930    8.7510 C.3     1  LIG1        0.0000
     14  C          9.8020   55.3140    7.8340 C.3     1  LIG1        0.0000
@<TRIPOS>BOND
     1    14    13    1
     2    13    12    1
     3    12    11    1
     4    11     1    1
     5     9     6    1
     6     9     2    1
     7     6     5    1
     8     1     2    1
     9     1    10    1
    10     2     3    1
    11     5     4    1
    12    10     8    1
    13     3     4    1
    14     3     7    1
    15     8     7    1
