@<TRIPOS>MOLECULE
smi_total_1_1_replica-1.pdbqt
 15 16 0 0 0
SMALL
GASTEIGER

@<TRIPOS>ATOM
      1  C          0.0170   59.6280   13.0970 C.3     1  LIG1        0.0310
      2  C          0.6440   58.3920   12.5260 C.ar    1  LIG1       -0.0220
      3  C          2.0380   58.2340   12.5390 C.ar    1  LIG1       -0.0040
      4  C          2.6990   57.1040   11.9910 C.ar    1  LIG1       -0.0040
      5  C          1.8790   56.1010   11.3940 C.ar    1  LIG1       -0.0040
      6  C          2.4720   54.9430   10.8270 C.ar    1  LIG1       -0.0220
      7  C          3.8600   54.7900   10.8530 C.ar    1  LIG1       -0.0040
      8  C          4.6650   55.7620   11.4320 C.ar    1  LIG1       -0.0040
      9  C          1.6550   53.8520   10.1830 C.3     1  LIG1        0.0310
     10  C          0.4770   56.2860   11.3770 C.ar    1  LIG1       -0.0010
     11  C          4.1180   56.9260   12.0060 C.ar    1  LIG1       -0.0220
     12  C         -0.1320   57.4120   11.9270 C.ar    1  LIG1       -0.0040
     13  C          5.1330   57.9030   12.6030 C.3     1  LIG1        0.0220
     14  C          5.3620   57.7030   14.1040 C.3     1  LIG1        0.0050
     15  C          6.4390   57.9890   11.8090 C.3     1  LIG1        0.0050
@<TRIPOS>BOND
     1     9     6    1
     2     6     7   ar
     3     6     5   ar
     4     7     8   ar
     5    10     5   ar
     6    10    12   ar
     7     5     4   ar
     8     8    11   ar
     9    15    13    1
    10    12     2   ar
    11     4    11   ar
    12     4     3   ar
    13    11    13    1
    14     2     3   ar
    15     2     1    1
    16    13    14    1
