@<TRIPOS>MOLECULE
smi_total_5_1_replica-1.pdbqt
 14 15 0 0 0
SMALL
GASTEIGER

@<TRIPOS>ATOM
      1  C          2.3600   57.4200   10.7860 C.3     1  LIG1        0.0000
      2  C          1.1840   57.8920    9.8890 C.3     1  LIG1        0.0000
      3  C          1.4420   59.3230    9.3580 C.3     1  LIG1        0.0000
      4  C          0.2840   59.8010    8.4690 C.3     1  LIG1        0.0000
      5  C         -1.0830   59.6650    9.1340 C.3     1  LIG1        0.0000
      6  C         -1.3170   58.2500    9.6440 C.3     1  LIG1        0.0000
      7  C          1.7350   60.3140   10.4960 C.3     1  LIG1        0.0000
      8  C          2.8950   59.8360   11.3630 C.3     1  LIG1        0.0000
      9  C         -0.1950   57.7850   10.5690 C.3     1  LIG1        0.0000
     10  C          2.6590   58.4310   11.9090 C.3     1  LIG1        0.0000
     11  C          2.1780   56.0080   11.3900 C.3     1  LIG1        0.0000
     12  C          2.8130   54.8970   10.5460 C.3     1  LIG1        0.0000
     13  C          1.8370   53.7450   10.3060 C.3     1  LIG1        0.0000
     14  C          0.6070   53.8730   11.1920 C.3     1  LIG1        0.0000
@<TRIPOS>BOND
     1     4     5    1
     2     4     3    1
     3     5     6    1
     4     3     2    1
     5     3     7    1
     6     6     9    1
     7     2     9    1
     8     2     1    1
     9    13    12    1
    10    13    14    1
    11     7     8    1
    12    12    11    1
    13     1    11    1
    14     1    10    1
    15     8    10    1
