@<TRIPOS>MOLECULE
smi_total_3_2_replica-1.pdbqt
 12 11 0 0 0
SMALL
GASTEIGER

@<TRIPOS>ATOM
      1  C          7.5940   54.9730   13.3890 C.3     1  LIG1        0.0000
      2  C          6.8160   54.4120   12.1920 C.3     1  LIG1        0.0000
      3  C          6.8540   55.3060   10.9280 C.3     1  LIG1        0.0000
      4  C          6.2980   56.7070   11.2090 C.3     1  LIG1        0.0000
      5  C          8.2880   55.3320   10.3090 C.3     1  LIG1        0.0000
      6  C          8.3140   54.7980    8.8730 C.3     1  LIG1        0.0000
      7  C          8.9590   56.7090   10.3510 C.3     1  LIG1        0.0000
      8  C          8.5160   53.9080   13.9950 C.3     1  LIG1        0.0000
      9  C          8.3480   52.5610   13.2910 C.3     1  LIG1        0.0000
     10  C          9.0170   51.4310   14.0780 C.3     1  LIG1        0.0000
     11  C          8.0470   50.2730   14.3160 C.3     1  LIG1        0.0000
     12  C          8.5890   48.9650   13.7660 C.3     1  LIG1        0.0000
@<TRIPOS>BOND
     1     6     5    1
     2     5     7    1
     3     5     3    1
     4     3     4    1
     5     3     2    1
     6     2     1    1
     7     9     8    1
     8     9    10    1
     9     1     8    1
    10    12    11    1
    11    10    11    1
