@<TRIPOS>MOLECULE
smi_total_3_2_replica-1.pdbqt
 12 11 0 0 0
SMALL
GASTEIGER

@<TRIPOS>ATOM
      1  C          4.2350   56.4310   12.3720 C.3     1  LIG1        0.0000
      2  C          4.1130   55.5490   11.1230 C.3     1  LIG1        0.0000
      3  C          2.7150   55.5710   10.4580 C.3     1  LIG1        0.0000
      4  C          2.0530   54.1880   10.4850 C.3     1  LIG1        0.0000
      5  C          1.8190   56.6880   11.0830 C.3     1  LIG1        0.0000
      6  C          1.6270   57.8800   10.1380 C.3     1  LIG1        0.0000
      7  C          0.4500   56.1930   11.5610 C.3     1  LIG1        0.0000
      8  C          5.4140   55.9890   13.2470 C.3     1  LIG1        0.0000
      9  C          6.3000   54.9780   12.5170 C.3     1  LIG1        0.0000
     10  C          7.7300   55.4970   12.3600 C.3     1  LIG1        0.0000
     11  C          7.9040   56.2480   11.0380 C.3     1  LIG1        0.0000
     12  C          7.5740   55.3670    9.8450 C.3     1  LIG1        0.0000
@<TRIPOS>BOND
     1    12    11    1
     2     6     5    1
     3     3     4    1
     4     3     5    1
     5     3     2    1
     6    11    10    1
     7     5     7    1
     8     2     1    1
     9    10     9    1
    10     1     8    1
    11     9     8    1
