@<TRIPOS>MOLECULE
smi_total_5_1_replica-1.pdbqt
 14 15 0 0 0
SMALL
GASTEIGER

@<TRIPOS>ATOM
      1  C          0.8270   56.2990   11.1400 C.3     1  LIG1        0.0000
      2  C          2.2830   56.6830   11.5180 C.3     1  LIG1        0.0000
      3  C          3.2970   55.7850   10.7700 C.3     1  LIG1        0.0000
      4  C          4.7420   56.1550   11.1370 C.3     1  LIG1        0.0000
      5  C          4.9920   56.1860   12.6430 C.3     1  LIG1        0.0000
      6  C          3.9880   57.0790   13.3580 C.3     1  LIG1        0.0000
      7  C          3.0160   54.2900   10.9950 C.3     1  LIG1        0.0000
      8  C          1.5840   53.9310   10.6130 C.3     1  LIG1        0.0000
      9  C          2.5480   56.6850   13.0360 C.3     1  LIG1        0.0000
     10  C          0.5640   54.7960   11.3470 C.3     1  LIG1        0.0000
     11  C         -0.2620   57.1250   11.8620 C.3     1  LIG1        0.0000
     12  C         -0.5660   58.4630   11.1800 C.3     1  LIG1        0.0000
     13  C          0.2340   59.6070   11.8030 C.3     1  LIG1        0.0000
     14  C          0.1800   59.5520   13.3220 C.3     1  LIG1        0.0000
@<TRIPOS>BOND
     1     8     7    1
     2     8    10    1
     3     3     7    1
     4     3     4    1
     5     3     2    1
     6     4     5    1
     7     1    10    1
     8     1     2    1
     9     1    11    1
    10    12    13    1
    11    12    11    1
    12     2     9    1
    13    13    14    1
    14     5     6    1
    15     9     6    1
