@<TRIPOS>MOLECULE
smi_total_5_1_replica-1.pdbqt
 14 15 0 0 0
SMALL
GASTEIGER

@<TRIPOS>ATOM
      1  C          4.2480   56.0480   12.2240 C.3     1  LIG1        0.0000
      2  C          5.5210   55.2910   11.7570 C.3     1  LIG1        0.0000
      3  C          6.3680   54.8450   12.9730 C.3     1  LIG1        0.0000
      4  C          7.6310   54.0950   12.5230 C.3     1  LIG1        0.0000
      5  C          8.4530   54.8630   11.4910 C.3     1  LIG1        0.0000
      6  C          7.6010   55.2870   10.3020 C.3     1  LIG1        0.0000
      7  C          6.7040   56.0230   13.9010 C.3     1  LIG1        0.0000
      8  C          5.4430   56.7510   14.3540 C.3     1  LIG1        0.0000
      9  C          6.3690   56.0760   10.7380 C.3     1  LIG1        0.0000
     10  C          4.5950   57.2110   13.1710 C.3     1  LIG1        0.0000
     11  C          3.3500   56.5610   11.0750 C.3     1  LIG1        0.0000
     12  C          2.0640   55.7460   10.8950 C.3     1  LIG1        0.0000
     13  C          2.3520   54.3620   10.3120 C.3     1  LIG1        0.0000
     14  C          1.1380   53.4530   10.4320 C.3     1  LIG1        0.0000
@<TRIPOS>BOND
     1     6     9    1
     2     6     5    1
     3    13    14    1
     4    13    12    1
     5     9     2    1
     6    12    11    1
     7    11     1    1
     8     5     4    1
     9     2     1    1
    10     2     3    1
    11     1    10    1
    12     4     3    1
    13     3     7    1
    14    10     8    1
    15     7     8    1
