@<TRIPOS>MOLECULE
smi_total_2_1_replica-1.pdbqt
 13 13 0 0 0
SMALL
GASTEIGER

@<TRIPOS>ATOM
      1  C          7.8670   55.2130   10.4090 C.3     1  LIG1        0.0000
      2  C          8.3360   54.9430    8.9720 C.3     1  LIG1        0.0000
      3  C          9.8570   55.1420    8.7920 C.3     1  LIG1        0.0000
      4  C         10.6160   53.8400    8.4910 C.3     1  LIG1        0.0000
      5  C         11.6970   54.2300    7.4940 C.3     1  LIG1        0.0000
      6  C         11.0030   55.2650    6.6290 C.3     1  LIG1        0.0000
      7  C         10.2000   56.0910    7.6280 C.3     1  LIG1        0.0000
      8  C          6.5460   55.9840   10.5660 C.2     1  LIG1        0.0000
      9  C          5.4100   55.3500   11.3800 C.2     1  LIG1        0.0000
     10  C          4.0220   55.9330   11.1400 C.3     1  LIG1        0.0000
     11  C          3.0970   54.9240   10.4370 C.3     1  LIG1        0.0000
     12  C          1.6520   55.0000   10.9410 C.3     1  LIG1        0.0000
     13  C          0.9200   53.6680   10.8540 C.3     1  LIG1        0.0000
@<TRIPOS>BOND
     1     6     5    1
     2     6     7    1
     3     5     4    1
     4     7     3    1
     5     4     3    1
     6     3     2    1
     7     2     1    1
     8     1     8    1
     9    11    12    1
    10    11    10    1
    11     8     9    2
    12    13    12    1
    13    10     9    1
