@<TRIPOS>MOLECULE
smi_total_3_1_replica-1.pdbqt
 12 11 0 0 0
SMALL
GASTEIGER

@<TRIPOS>ATOM
      1  C          5.7710   56.5540   13.0110 C.3     1  LIG1        0.0000
      2  C          4.2560   56.8590   12.9930 C.3     1  LIG1        0.0000
      3  C          3.6720   57.4740   11.7070 C.3     1  LIG1        0.0000
      4  C          2.6380   56.5970   11.0020 C.3     1  LIG1        0.0000
      5  C          3.0740   55.1510   10.8290 C.3     1  LIG1        0.0000
      6  C          2.0560   54.3970    9.9620 C.3     1  LIG1        0.0000
      7  C          1.2870   53.4000   10.8100 C.3     1  LIG1        0.0000
      8  C          6.1570   55.0730   12.9540 C.3     1  LIG1        0.0000
      9  C          6.6630   54.5830   11.5950 C.3     1  LIG1        0.0000
     10  C          6.7680   55.7210   10.5500 C.3     1  LIG1        0.0000
     11  C          8.1750   55.8090    9.9490 C.3     1  LIG1        0.0000
     12  C          8.4940   54.7930    8.8630 C.3     1  LIG1        0.0000
@<TRIPOS>BOND
     1    12    11    1
     2    11    10    1
     3     6     7    1
     4     6     5    1
     5    10     9    1
     6     5     4    1
     7     4     3    1
     8     9     8    1
     9     3     2    1
    10     8     1    1
    11     2     1    1
