@<TRIPOS>MOLECULE
smi_total_5_2_replica-1.pdbqt
 13 12 0 0 0
SMALL
GASTEIGER

@<TRIPOS>ATOM
      1  C          6.8920   56.2160   10.4840 C.3     1  LIG1        0.0040
      2  C          8.0750   56.9000   11.1910 C.3     1  LIG1        0.0000
      3  C          5.7670   55.7230   11.4310 C.3     1  LIG1        0.0260
      4  C          4.3230   55.7860   11.0360 C.2     1  LIG1       -0.0300
      5  C          3.4400   54.7640   11.0160 C.2     1  LIG1       -0.0300
      6  C          2.0250   54.8260   10.5550 C.3     1  LIG1        0.0260
      7  C          1.4750   53.4240   10.3800 C.3     1  LIG1        0.0050
      8  C          7.4780   55.0160    9.7050 C.3     1  LIG1        0.0050
      9  C          9.0000   55.0440    9.5340 C.3     1  LIG1        0.0250
     10  C          9.4310   55.0230    8.0950 C.2     1  LIG1       -0.0340
     11  C         10.1340   55.9580    7.4260 C.2     1  LIG1       -0.0480
     12  C         10.4790   55.7550    5.9760 C.3     1  LIG1        0.0260
     13  C         10.6390   57.2580    7.9910 C.3     1  LIG1        0.0260
@<TRIPOS>BOND
     1    12    11    1
     2    11    13    1
     3    11    10    2
     4    10     9    1
     5     9     8    1
     6     8     1    1
     7     7     6    1
     8     1     2    1
     9     1     3    1
    10     6     5    1
    11     5     4    2
    12     4     3    1
