@<TRIPOS>MOLECULE
smi_total_3_2_replica-1.pdbqt
 12 11 0 0 0
SMALL
GASTEIGER

@<TRIPOS>ATOM
      1  C          4.6290   56.4730   12.0070 C.3     1  LIG1        0.0000
      2  C          5.3390   55.6210   10.9480 C.3     1  LIG1        0.0000
      3  C          6.7490   56.1270   10.5580 C.3     1  LIG1        0.0000
      4  C          7.2640   57.1820   11.5440 C.3     1  LIG1        0.0000
      5  C          7.7370   54.9320   10.3740 C.3     1  LIG1        0.0000
      6  C          8.3600   54.8990    8.9730 C.3     1  LIG1        0.0000
      7  C          8.8500   54.8750   11.4250 C.3     1  LIG1        0.0000
      8  C          3.2310   56.8890   11.5360 C.3     1  LIG1        0.0000
      9  C          2.5300   55.7470   10.7980 C.3     1  LIG1        0.0000
     10  C          1.1050   55.5380   11.3150 C.3     1  LIG1        0.0000
     11  C          0.6580   54.0870   11.1320 C.3     1  LIG1        0.0000
     12  C          1.6030   53.3190   10.2230 C.3     1  LIG1        0.0000
@<TRIPOS>BOND
     1     6     5    1
     2    12    11    1
     3     5     3    1
     4     5     7    1
     5     3     2    1
     6     3     4    1
     7     9    10    1
     8     9     8    1
     9     2     1    1
    10    11    10    1
    11     8     1    1
