@<TRIPOS>MOLECULE
smi_total_3_2_replica-1.pdbqt
 12 11 0 0 0
SMALL
GASTEIGER

@<TRIPOS>ATOM
      1  C          5.3800   56.2790   11.1810 C.3     1  LIG1        0.0000
      2  C          6.5810   55.5940   10.5170 C.3     1  LIG1        0.0000
      3  C          7.8720   56.4480   10.4910 C.3     1  LIG1        0.0000
      4  C          8.2890   56.8860   11.8990 C.3     1  LIG1        0.0000
      5  C          9.0120   55.7080    9.7210 C.3     1  LIG1        0.0000
      6  C          8.4700   54.7250    8.6770 C.3     1  LIG1        0.0000
      7  C         10.0250   56.6460    9.0560 C.3     1  LIG1        0.0000
      8  C          4.2810   55.2650   11.5160 C.3     1  LIG1        0.0000
      9  C          3.0880   55.4050   10.5700 C.3     1  LIG1        0.0000
     10  C          1.7800   55.5960   11.3420 C.3     1  LIG1        0.0000
     11  C          0.8120   54.4390   11.0870 C.3     1  LIG1        0.0000
     12  C          1.4600   53.3380   10.2630 C.3     1  LIG1        0.0000
@<TRIPOS>BOND
     1     6     5    1
     2     7     5    1
     3     5     3    1
     4    12    11    1
     5     3     2    1
     6     3     4    1
     7     2     1    1
     8     9    10    1
     9     9     8    1
    10    11    10    1
    11     1     8    1
