@<TRIPOS>MOLECULE
smi_total_3_2_replica-1.pdbqt
 12 11 0 0 0
SMALL
GASTEIGER

@<TRIPOS>ATOM
      1  C          5.9220   56.0400   11.0710 C.3     1  LIG1        0.0000
      2  C          4.6360   55.3410   11.5290 C.3     1  LIG1        0.0000
      3  C          3.3740   55.7250   10.7180 C.3     1  LIG1        0.0000
      4  C          2.3830   54.5580   10.6270 C.3     1  LIG1        0.0000
      5  C          2.7280   57.0310   11.2800 C.3     1  LIG1        0.0000
      6  C          1.5910   57.5500   10.3920 C.3     1  LIG1        0.0000
      7  C          2.2280   56.9080   12.7230 C.3     1  LIG1        0.0000
      8  C          7.0230   55.0200   10.7610 C.3     1  LIG1        0.0000
      9  C          8.1020   55.6230    9.8600 C.3     1  LIG1        0.0000
     10  C          8.4490   54.6890    8.6990 C.3     1  LIG1        0.0000
     11  C          9.7090   55.1580    7.9690 C.3     1  LIG1        0.0000
     12  C         10.2130   56.4830    8.5150 C.3     1  LIG1        0.0000
@<TRIPOS>BOND
     1    11    12    1
     2    11    10    1
     3    10     9    1
     4     9     8    1
     5     6     5    1
     6     4     3    1
     7     3     5    1
     8     3     2    1
     9     8     1    1
    10     1     2    1
    11     5     7    1
